examples/feeders/1_REDE2_1/012_cargasBT_1_1.dss
New Load.BT_1107342_M1 bus1=UC1107342.1.4 phases=1 conn=Wye model=2 kv=0.219393102 kw=0 pf=0.92 daily=RU1_DU status=variable vmaxpu=1.5 vminpu=0.92
New Load.BT_1107342_M2 bus1=UC1107342.1.4 phases=1 conn=Wye model=3 kv=0.219393102 kw=0 pf=0.92 daily=RU1_DU status=variable vmaxpu=1.5 vminpu=0.92
New Load.BT_1107345_M1 bus1=UC1107345.2.4 phases=1 conn=Wye model=2 kv=0.219393102 kw=0.1374575 pf=0.92 daily=RU7_DU status=variable vmaxpu=1.5 vminpu=0.92
New Load.BT_1107345_M2 bus1=UC1107345.2.4 phases=1 conn=Wye model=3 kv=0.219393102 kw=0.1374575 pf=0.92 daily=RU7_DU status=variable vmaxpu=1.5 vminpu=0.92
New Load.BT_1124340_M1 bus1=UC1124340.1.2.3.4 phases=3 conn=Delta model=2 kv=0.38 kw=0.3411995 pf=0.92 daily=RU2_DU status=variable vmaxpu=1.5 vminpu=0.92
New Load.BT_1124340_M2 bus1=UC1124340.1.2.3.4 phases=3 conn=Delta model=3 kv=0.38 kw=0.3411995 pf=0.92 daily=RU2_DU status=variable vmaxpu=1.5 vminpu=0.92
New Load.BT_1132015_M1 bus1=UC1132015.1.4 phases=1 conn=Wye model=2 kv=0.22 kw=0.0373785 pf=0.92 daily=RU7_DU status=variable vmaxpu=1.5 vminpu=0.92
New Load.BT_1132015_M2 bus1=UC1132015.1.4 phases=1 conn=Wye model=3 kv=0.22 kw=0.0373785 pf=0.92 daily=RU7_DU status=variable vmaxpu=1.5 vminpu=0.92
New Load.BT_1134165_M1 bus1=UC1134165.1.4 phases=1 conn=Wye model=2 kv=0.22 kw=0.514863 pf=0.92 daily=RU7_DU status=variable vmaxpu=1.5 vminpu=0.92
New Load.BT_1134165_M2 bus1=UC1134165.1.4 phases=1 conn=Wye model=3 kv=0.22 kw=0.514863 pf=0.92 daily=RU7_DU status=variable vmaxpu=1.5 vminpu=0.92
New Load.BT_1107330_M1 bus1=UC1107330.1.4 phases=1 conn=Wye model=2 kv=0.22 kw=0.6287305 pf=0.92 daily=RU8_DU status=variable vmaxpu=1.5 vminpu=0.92
New Load.BT_1107330_M2 bus1=UC1107330.1.4 phases=1 conn=Wye model=3 kv=0.22 kw=0.6287305 pf=0.92 daily=RU8_DU status=variable vmaxpu=1.5 vminpu=0.92
New Load.BT_1107340_M1 bus1=UC1107340.1.4 phases=1 conn=Wye model=2 kv=0.22 kw=0.588105 pf=0.92 daily=RU4_DU status=variable vmaxpu=1.5 vminpu=0.92
New Load.BT_1107340_M2 bus1=UC1107340.1.4 phases=1 conn=Wye model=3 kv=0.22 kw=0.588105 pf=0.92 daily=RU4_DU status=variable vmaxpu=1.5 vminpu=0.92
New Load.BT_1107333_M1 bus1=UC1107333.2.4 phases=1 conn=Wye model=2 kv=0.22 kw=0.2351245 pf=0.92 daily=RU7_DU status=variable vmaxpu=1.5 vminpu=0.92
New Load.BT_1107333_M2 bus1=UC1107333.2.4 phases=1 conn=Wye model=3 kv=0.22 kw=0.2351245 pf=0.92 daily=RU7_DU status=variable vmaxpu=1.5 vminpu=0.92
New Load.BT_1121173_M1 bus1=UC1121173.2.4 phases=1 conn=Wye model=2 kv=0.22 kw=0.2419295 pf=0.92 daily=RU4_DU status=variable vmaxpu=1.5 vminpu=0.92
New Load.BT_1121173_M2 bus1=UC1121173.2.4 phases=1 conn=Wye model=3 kv=0.22 kw=0.2419295 pf=0.92 daily=RU4_DU status=variable vmaxpu=1.5 vminpu=0.92
New Load.BT_1137150_M1 bus1=UC1137150.1.4 phases=1 conn=Wye model=2 kv=0.22 kw=0.254018 pf=0.92 daily=RU8_DU status=variable vmaxpu=1.5 vminpu=0.92
New Load.BT_1137150_M2 bus1=UC1137150.1.4 phases=1 conn=Wye model=3 kv=0.22 kw=0.254018 pf=0.92 daily=RU8_DU status=variable vmaxpu=1.5 vminpu=0.92
New Load.BT_1105833_M1 bus1=UC1105833.1.4 phases=1 conn=Wye model=2 kv=0.22 kw=0.444956 pf=0.92 daily=RU2_DU status=variable vmaxpu=1.5 vminpu=0.92
New Load.BT_1105833_M2 bus1=UC1105833.1.4 phases=1 conn=Wye model=3 kv=0.22 kw=0.444956 pf=0.92 daily=RU2_DU status=variable vmaxpu=1.5 vminpu=0.92
New Load.BT_1124041_M1 bus1=UC1124041.2.4 phases=1 conn=Wye model=2 kv=0.22 kw=0.409437 pf=0.92 daily=RU3_DU status=variable vmaxpu=1.5 vminpu=0.92
New Load.BT_1124041_M2 bus1=UC1124041.2.4 phases=1 conn=Wye model=3 kv=0.22 kw=0.409437 pf=0.92 daily=RU3_DU status=variable vmaxpu=1.5 vminpu=0.92
New Load.BT_1607347_M1 bus1=UC1607347.1.2.3.4 phases=3 conn=Delta model=2 kv=0.38 kw=1.653224 pf=0.92 daily=RU8_DU status=variable vmaxpu=1.5 vminpu=0.92
New Load.BT_1607347_M2 bus1=UC1607347.1.2.3.4 phases=3 conn=Delta model=3 kv=0.38 kw=1.653224 pf=0.92 daily=RU8_DU status=variable vmaxpu=1.5 vminpu=0.92
New Load.BT_1132019_M1 bus1=UC1132019.1.4 phases=1 conn=Wye model=2 kv=0.22 kw=0 pf=0.92 daily=RU4_DU status=variable vmaxpu=1.5 vminpu=0.92
New Load.BT_1132019_M2 bus1=UC1132019.1.4 phases=1 conn=Wye model=3 kv=0.22 kw=0 pf=0.92 daily=RU4_DU status=variable vmaxpu=1.5 vminpu=0.92
New Load.BT_1132012_M1 bus1=UC1132012.1.4 phases=1 conn=Wye model=2 kv=0.22 kw=0.028068 pf=0.92 daily=RU8_DU status=variable vmaxpu=1.5 vminpu=0.92
New Load.BT_1132012_M2 bus1=UC1132012.1.4 phases=1 conn=Wye model=3 kv=0.22 kw=0.028068 pf=0.92 daily=RU8_DU status=variable vmaxpu=1.5 vminpu=0.92
New Load.BT_1130761_M1 bus1=UC1130761.1.4 phases=1 conn=Wye model=2 kv=0.22 kw=2.1819655 pf=0.92 daily=RU1_DU status=variable vmaxpu=1.5 vminpu=0.92
New Load.BT_1130761_M2 bus1=UC1130761.1.4 phases=1 conn=Wye model=3 kv=0.22 kw=2.1819655 pf=0.92 daily=RU1_DU status=variable vmaxpu=1.5 vminpu=0.92
New Load.BT_1131858_M1 bus1=UC1131858.2.4 phases=1 conn=Wye model=2 kv=0.22 kw=0.488507 pf=0.92 daily=RU6_DU status=variable vmaxpu=1.5 vminpu=0.92
New Load.BT_1131858_M2 bus1=UC1131858.2.4 phases=1 conn=Wye model=3 kv=0.22 kw=0.488507 pf=0.92 daily=RU6_DU status=variable vmaxpu=1.5 vminpu=0.92
New Load.BT_1107341_M1 bus1=UC1107341.2.4 phases=1 conn=Wye model=2 kv=0.22 kw=0.1338545 pf=0.92 daily=RU3_DU status=variable vmaxpu=1.5 vminpu=0.92
New Load.BT_1107341_M2 bus1=UC1107341.2.4 phases=1 conn=Wye model=3 kv=0.22 kw=0.1338545 pf=0.92 daily=RU3_DU status=variable vmaxpu=1.5 vminpu=0.92
New Load.BT_1605991_M1 bus1=UC1605991.1.4 phases=1 conn=Wye model=2 kv=0.22 kw=0.397315 pf=0.92 daily=RU4_DU status=variable vmaxpu=1.5 vminpu=0.92
New Load.BT_1605991_M2 bus1=UC1605991.1.4 phases=1 conn=Wye model=3 kv=0.22 kw=0.397315 pf=0.92 daily=RU4_DU status=variable vmaxpu=1.5 vminpu=0.92
New Load.BT_1607278_M1 bus1=UC1607278.1.2.4 phases=1 conn=Delta model=2 kv=0.44 kw=0.756759 pf=0.92 daily=RU3_DU status=variable vmaxpu=1.5 vminpu=0.92
New Load.BT_1607278_M2 bus1=UC1607278.1.2.4 phases=1 conn=Delta model=3 kv=0.44 kw=0.756759 pf=0.92 daily=RU3_DU status=variable vmaxpu=1.5 vminpu=0.92
New Load.BT_1607368_M1 bus1=UC1607368.1.2.4 phases=1 conn=Delta model=2 kv=0.44 kw=0.2836165 pf=0.92 daily=RU5_DU status=variable vmaxpu=1.5 vminpu=0.92
New Load.BT_1607368_M2 bus1=UC1607368.1.2.4 phases=1 conn=Delta model=3 kv=0.44 kw=0.2836165 pf=0.92 daily=RU5_DU status=variable vmaxpu=1.5 vminpu=0.92
New Load.BT_606150_M1 bus1=UC606150.1.2.3.4 phases=3 conn=Delta model=2 kv=0.38 kw=3.284296 pf=0.92 daily=RU2_DU status=variable vmaxpu=1.5 vminpu=0.92
New Load.BT_606150_M2 bus1=UC606150.1.2.3.4 phases=3 conn=Delta model=3 kv=0.38 kw=3.284296 pf=0.92 daily=RU2_DU status=variable vmaxpu=1.5 vminpu=0.92
New Load.BT_1607272_M1 bus1=UC1607272.1.4 phases=1 conn=Wye model=2 kv=0.219393102 kw=0.925828 pf=0.92 daily=RU2_DU status=variable vmaxpu=1.5 vminpu=0.92
New Load.BT_1607272_M2 bus1=UC1607272.1.4 phases=1 conn=Wye model=3 kv=0.219393102 kw=0.925828 pf=0.92 daily=RU2_DU status=variable vmaxpu=1.5 vminpu=0.92
New Load.BT_1605996_M1 bus1=UC1605996.1.4 phases=1 conn=Wye model=2 kv=0.219393102 kw=0.0236025 pf=0.92 daily=RU4_DU status=variable vmaxpu=1.5 vminpu=0.92
New Load.BT_1605996_M2 bus1=UC1605996.1.4 phases=1 conn=Wye model=3 kv=0.219393102 kw=0.0236025 pf=0.92 daily=RU4_DU status=variable vmaxpu=1.5 vminpu=0.92
New Load.BT_1633671_M1 bus1=UC1633671.1.2.3.4 phases=3 conn=Delta model=2 kv=0.38 kw=2.1191585 pf=0.92 daily=RU8_DU status=variable vmaxpu=1.5 vminpu=0.92
New Load.BT_1633671_M2 bus1=UC1633671.1.2.3.4 phases=3 conn=Delta model=3 kv=0.38 kw=2.1191585 pf=0.92 daily=RU8_DU status=variable vmaxpu=1.5 vminpu=0.92
New Load.BT_1633896_M1 bus1=UC1633896.1.4 phases=1 conn=Wye model=2 kv=0.22 kw=0.1471035 pf=0.92 daily=RU7_DU status=variable vmaxpu=1.5 vminpu=0.92
New Load.BT_1633896_M2 bus1=UC1633896.1.4 phases=1 conn=Wye model=3 kv=0.22 kw=0.1471035 pf=0.92 daily=RU7_DU status=variable vmaxpu=1.5 vminpu=0.92
New Load.BT_1635060_M1 bus1=UC1635060.1.4 phases=1 conn=Wye model=2 kv=0.22 kw=0.347667 pf=0.92 daily=RU1_DU status=variable vmaxpu=1.5 vminpu=0.92
New Load.BT_1635060_M2 bus1=UC1635060.1.4 phases=1 conn=Wye model=3 kv=0.22 kw=0.347667 pf=0.92 daily=RU1_DU status=variable vmaxpu=1.5 vminpu=0.92
New Load.BT_1607268_M1 bus1=UC1607268.1.2.4 phases=1 conn=Delta model=2 kv=0.44 kw=0.445155 pf=0.92 daily=RU5_DU status=variable vmaxpu=1.5 vminpu=0.92
New Load.BT_1607268_M2 bus1=UC1607268.1.2.4 phases=1 conn=Delta model=3 kv=0.44 kw=0.445155 pf=0.92 daily=RU5_DU status=variable vmaxpu=1.5 vminpu=0.92
New Load.BT_1607270_M1 bus1=UC1607270.1.2.4 phases=1 conn=Delta model=2 kv=0.44 kw=0.2833565 pf=0.92 daily=RU6_DU status=variable vmaxpu=1.5 vminpu=0.92
New Load.BT_1607270_M2 bus1=UC1607270.1.2.4 phases=1 conn=Delta model=3 kv=0.44 kw=0.2833565 pf=0.92 daily=RU6_DU status=variable vmaxpu=1.5 vminpu=0.92
New Load.BT_1607271_M1 bus1=UC1607271.1.4 phases=1 conn=Wye model=2 kv=0.22 kw=0.15044 pf=0.92 daily=RU5_DU status=variable vmaxpu=1.5 vminpu=0.92
New Load.BT_1607271_M2 bus1=UC1607271.1.4 phases=1 conn=Wye model=3 kv=0.22 kw=0.15044 pf=0.92 daily=RU5_DU status=variable vmaxpu=1.5 vminpu=0.92
New Load.BT_1607358_M1 bus1=UC1607358.1.2.4 phases=1 conn=Delta model=2 kv=0.44 kw=0.6698555 pf=0.92 daily=RU6_DU status=variable vmaxpu=1.5 vminpu=0.92
New Load.BT_1607358_M2 bus1=UC1607358.1.2.4 phases=1 conn=Delta model=3 kv=0.44 kw=0.6698555 pf=0.92 daily=RU6_DU status=variable vmaxpu=1.5 vminpu=0.92
New Load.BT_1607298_M1 bus1=UC1607298.1.2.3.4 phases=3 conn=Delta model=2 kv=0.38 kw=0.1253995 pf=0.92 daily=RU7_DU status=variable vmaxpu=1.5 vminpu=0.92
New Load.BT_1607298_M2 bus1=UC1607298.1.2.3.4 phases=3 conn=Delta model=3 kv=0.38 kw=0.1253995 pf=0.92 daily=RU7_DU status=variable vmaxpu=1.5 vminpu=0.92
New Load.BT_1607299_M1 bus1=UC1607299.2.4 phases=1 conn=Wye model=2 kv=0.219393102 kw=0.1037565 pf=0.92 daily=RU2_DU status=variable vmaxpu=1.5 vminpu=0.92
New Load.BT_1607299_M2 bus1=UC1607299.2.4 phases=1 conn=Wye model=3 kv=0.219393102 kw=0.1037565 pf=0.92 daily=RU2_DU status=variable vmaxpu=1.5 vminpu=0.92
New Load.BT_1607265_M1 bus1=UC1607265.1.4 phases=1 conn=Wye model=2 kv=0.22 kw=1.1973275 pf=0.92 daily=RU7_DU status=variable vmaxpu=1.5 vminpu=0.92
New Load.BT_1607265_M2 bus1=UC1607265.1.4 phases=1 conn=Wye model=3 kv=0.22 kw=1.1973275 pf=0.92 daily=RU7_DU status=variable vmaxpu=1.5 vminpu=0.92
New Load.BT_1630759_M1 bus1=UC1630759.1.2.4 phases=1 conn=Delta model=2 kv=0.44 kw=1.263737 pf=0.92 daily=RU4_DU status=variable vmaxpu=1.5 vminpu=0.92
New Load.BT_1630759_M2 bus1=UC1630759.1.2.4 phases=1 conn=Delta model=3 kv=0.44 kw=1.263737 pf=0.92 daily=RU4_DU status=variable vmaxpu=1.5 vminpu=0.92
New Load.BT_1632402_M1 bus1=UC1632402.1.2.4 phases=1 conn=Delta model=2 kv=0.44 kw=0.580036 pf=0.92 daily=RU3_DU status=variable vmaxpu=1.5 vminpu=0.92
New Load.BT_1632402_M2 bus1=UC1632402.1.2.4 phases=1 conn=Delta model=3 kv=0.44 kw=0.580036 pf=0.92 daily=RU3_DU status=variable vmaxpu=1.5 vminpu=0.92
New Load.BT_1627323_M1 bus1=UC1627323.1.2.4 phases=1 conn=Delta model=2 kv=0.44 kw=1.888233 pf=0.92 daily=RU7_DU status=variable vmaxpu=1.5 vminpu=0.92
New Load.BT_1627323_M2 bus1=UC1627323.1.2.4 phases=1 conn=Delta model=3 kv=0.44 kw=1.888233 pf=0.92 daily=RU7_DU status=variable vmaxpu=1.5 vminpu=0.92
New Load.BT_1609690_M1 bus1=UC1609690.1.4 phases=1 conn=Wye model=2 kv=0.22 kw=0.182847 pf=0.92 daily=RU3_DU status=variable vmaxpu=1.5 vminpu=0.92
New Load.BT_1609690_M2 bus1=UC1609690.1.4 phases=1 conn=Wye model=3 kv=0.22 kw=0.182847 pf=0.92 daily=RU3_DU status=variable vmaxpu=1.5 vminpu=0.92
New Load.BT_1620373_M1 bus1=UC1620373.1.2.3.4 phases=3 conn=Delta model=2 kv=0.38 kw=0.308279 pf=0.92 daily=RU5_DU status=variable vmaxpu=1.5 vminpu=0.92
New Load.BT_1620373_M2 bus1=UC1620373.1.2.3.4 phases=3 conn=Delta model=3 kv=0.38 kw=0.308279 pf=0.92 daily=RU5_DU status=variable vmaxpu=1.5 vminpu=0.92
New Load.BT_1621994_M1 bus1=UC1621994.1.4 phases=1 conn=Wye model=2 kv=0.22 kw=0.6357475 pf=0.92 daily=RU8_DU status=variable vmaxpu=1.5 vminpu=0.92
New Load.BT_1621994_M2 bus1=UC1621994.1.4 phases=1 conn=Wye model=3 kv=0.22 kw=0.6357475 pf=0.92 daily=RU8_DU status=variable vmaxpu=1.5 vminpu=0.92
New Load.BT_1607279_M1 bus1=UC1607279.1.2.3.4 phases=3 conn=Delta model=2 kv=0.38 kw=0.230128 pf=0.92 daily=RU4_DU status=variable vmaxpu=1.5 vminpu=0.92
New Load.BT_1607279_M2 bus1=UC1607279.1.2.3.4 phases=3 conn=Delta model=3 kv=0.38 kw=0.230128 pf=0.92 daily=RU4_DU status=variable vmaxpu=1.5 vminpu=0.92
New Load.BT_1607280_M1 bus1=UC1607280.1.2.3.4 phases=3 conn=Delta model=2 kv=0.38 kw=1.3466205 pf=0.92 daily=RU1_DU status=variable vmaxpu=1.5 vminpu=0.92
New Load.BT_1607280_M2 bus1=UC1607280.1.2.3.4 phases=3 conn=Delta model=3 kv=0.38 kw=1.3466205 pf=0.92 daily=RU1_DU status=variable vmaxpu=1.5 vminpu=0.92
New Load.BT_1607287_M1 bus1=UC1607287.1.4 phases=1 conn=Wye model=2 kv=0.22 kw=1.1288935 pf=0.92 daily=RU6_DU status=variable vmaxpu=1.5 vminpu=0.92
New Load.BT_1607287_M2 bus1=UC1607287.1.4 phases=1 conn=Wye model=3 kv=0.22 kw=1.1288935 pf=0.92 daily=RU6_DU status=variable vmaxpu=1.5 vminpu=0.92
New Load.BT_1607291_M1 bus1=UC1607291.1.2.4 phases=1 conn=Delta model=2 kv=0.44 kw=0.518783 pf=0.92 daily=RU2_DU status=variable vmaxpu=1.5 vminpu=0.92
New Load.BT_1607291_M2 bus1=UC1607291.1.2.4 phases=1 conn=Delta model=3 kv=0.44 kw=0.518783 pf=0.92 daily=RU2_DU status=variable vmaxpu=1.5 vminpu=0.92
New Load.BT_1607292_M1 bus1=UC1607292.2.4 phases=1 conn=Wye model=2 kv=0.22 kw=0.2245465 pf=0.92 daily=RU8_DU status=variable vmaxpu=1.5 vminpu=0.92
New Load.BT_1607292_M2 bus1=UC1607292.2.4 phases=1 conn=Wye model=3 kv=0.22 kw=0.2245465 pf=0.92 daily=RU8_DU status=variable vmaxpu=1.5 vminpu=0.92
New Load.BT_1607297_M1 bus1=UC1607297.1.2.4 phases=1 conn=Delta model=2 kv=0.44 kw=0.567788 pf=0.92 daily=RU3_DU status=variable vmaxpu=1.5 vminpu=0.92
New Load.BT_1607297_M2 bus1=UC1607297.1.2.4 phases=1 conn=Delta model=3 kv=0.44 kw=0.567788 pf=0.92 daily=RU3_DU status=variable vmaxpu=1.5 vminpu=0.92
New Load.BT_1607303_M1 bus1=UC1607303.2.4 phases=1 conn=Wye model=2 kv=0.22 kw=0.172636 pf=0.92 daily=RU5_DU status=variable vmaxpu=1.5 vminpu=0.92
New Load.BT_1607303_M2 bus1=UC1607303.2.4 phases=1 conn=Wye model=3 kv=0.22 kw=0.172636 pf=0.92 daily=RU5_DU status=variable vmaxpu=1.5 vminpu=0.92
New Load.BT_1607306_M1 bus1=UC1607306.1.2.4 phases=1 conn=Delta model=2 kv=0.44 kw=0.9098655 pf=0.92 daily=RU2_DU status=variable vmaxpu=1.5 vminpu=0.92
New Load.BT_1607306_M2 bus1=UC1607306.1.2.4 phases=1 conn=Delta model=3 kv=0.44 kw=0.9098655 pf=0.92 daily=RU2_DU status=variable vmaxpu=1.5 vminpu=0.92
New Load.BT_1607308_M1 bus1=UC1607308.1.2.4 phases=1 conn=Delta model=2 kv=0.44 kw=0.1531325 pf=0.92 daily=RU7_DU status=variable vmaxpu=1.5 vminpu=0.92
New Load.BT_1607308_M2 bus1=UC1607308.1.2.4 phases=1 conn=Delta model=3 kv=0.44 kw=0.1531325 pf=0.92 daily=RU7_DU status=variable vmaxpu=1.5 vminpu=0.92
New Load.BT_1607283_M1 bus1=UC1607283.1.4 phases=1 conn=Wye model=2 kv=0.219393102 kw=0.436462 pf=0.92 daily=RU8_DU status=variable vmaxpu=1.5 vminpu=0.92
New Load.BT_1607283_M2 bus1=UC1607283.1.4 phases=1 conn=Wye model=3 kv=0.219393102 kw=0.436462 pf=0.92 daily=RU8_DU status=variable vmaxpu=1.5 vminpu=0.92
New Load.BT_1607284_M1 bus1=UC1607284.2.4 phases=1 conn=Wye model=2 kv=0.219393102 kw=0.1136765 pf=0.92 daily=RU8_DU status=variable vmaxpu=1.5 vminpu=0.92
New Load.BT_1607284_M2 bus1=UC1607284.2.4 phases=1 conn=Wye model=3 kv=0.219393102 kw=0.1136765 pf=0.92 daily=RU8_DU status=variable vmaxpu=1.5 vminpu=0.92
New Load.BT_1607285_M1 bus1=UC1607285.1.2.3.4 phases=3 conn=Delta model=2 kv=0.38 kw=0.9294105 pf=0.92 daily=RU6_DU status=variable vmaxpu=1.5 vminpu=0.92
New Load.BT_1607285_M2 bus1=UC1607285.1.2.3.4 phases=3 conn=Delta model=3 kv=0.38 kw=0.9294105 pf=0.92 daily=RU6_DU status=variable vmaxpu=1.5 vminpu=0.92
New Load.BT_1607357_M1 bus1=UC1607357.1.2.4 phases=1 conn=Delta model=2 kv=0.44 kw=0.6771465 pf=0.92 daily=RU3_DU status=variable vmaxpu=1.5 vminpu=0.92
New Load.BT_1607357_M2 bus1=UC1607357.1.2.4 phases=1 conn=Delta model=3 kv=0.44 kw=0.6771465 pf=0.92 daily=RU3_DU status=variable vmaxpu=1.5 vminpu=0.92
New Load.BT_1631852_M1 bus1=UC1631852.1.4 phases=1 conn=Wye model=2 kv=0.22 kw=0.6591515 pf=0.92 daily=RU1_DU status=variable vmaxpu=1.5 vminpu=0.92
New Load.BT_1631852_M2 bus1=UC1631852.1.4 phases=1 conn=Wye model=3 kv=0.22 kw=0.6591515 pf=0.92 daily=RU1_DU status=variable vmaxpu=1.5 vminpu=0.92
New Load.BT_637356_M1 bus1=UC637356.1.4 phases=1 conn=Wye model=2 kv=0.22 kw=0.259835 pf=0.92 daily=RU3_DU status=variable vmaxpu=1.5 vminpu=0.92
New Load.BT_637356_M2 bus1=UC637356.1.4 phases=1 conn=Wye model=3 kv=0.22 kw=0.259835 pf=0.92 daily=RU3_DU status=variable vmaxpu=1.5 vminpu=0.92
New Load.BT_1625170_M1 bus1=UC1625170.1.4 phases=1 conn=Wye model=2 kv=0.22 kw=0.237546 pf=0.92 daily=RU1_DU status=variable vmaxpu=1.5 vminpu=0.92
New Load.BT_1625170_M2 bus1=UC1625170.1.4 phases=1 conn=Wye model=3 kv=0.22 kw=0.237546 pf=0.92 daily=RU1_DU status=variable vmaxpu=1.5 vminpu=0.92
New Load.BT_1607302_M1 bus1=UC1607302.1.2.3.4 phases=3 conn=Delta model=2 kv=0.38 kw=0.6494535 pf=0.92 daily=RU6_DU status=variable vmaxpu=1.5 vminpu=0.92
New Load.BT_1607302_M2 bus1=UC1607302.1.2.3.4 phases=3 conn=Delta model=3 kv=0.38 kw=0.6494535 pf=0.92 daily=RU6_DU status=variable vmaxpu=1.5 vminpu=0.92
New Load.BT_605914_M1 bus1=UC605914.1.4 phases=1 conn=Wye model=2 kv=0.22 kw=0 pf=0.92 daily=CO4_DU status=variable vmaxpu=1.5 vminpu=0.92
New Load.BT_605914_M2 bus1=UC605914.1.4 phases=1 conn=Wye model=3 kv=0.22 kw=0 pf=0.92 daily=CO4_DU status=variable vmaxpu=1.5 vminpu=0.92
New Load.BT_1607276_M1 bus1=UC1607276.2.4 phases=1 conn=Wye model=2 kv=0.22 kw=0.200998 pf=0.92 daily=RU5_DU status=variable vmaxpu=1.5 vminpu=0.92
New Load.BT_1607276_M2 bus1=UC1607276.2.4 phases=1 conn=Wye model=3 kv=0.22 kw=0.200998 pf=0.92 daily=RU5_DU status=variable vmaxpu=1.5 vminpu=0.92
New Load.BT_1607277_M1 bus1=UC1607277.1.4 phases=1 conn=Wye model=2 kv=0.22 kw=0.0079335 pf=0.92 daily=RU6_DU status=variable vmaxpu=1.5 vminpu=0.92
New Load.BT_1607277_M2 bus1=UC1607277.1.4 phases=1 conn=Wye model=3 kv=0.22 kw=0.0079335 pf=0.92 daily=RU6_DU status=variable vmaxpu=1.5 vminpu=0.92
New Load.BT_1626490_M1 bus1=UC1626490.1.4 phases=1 conn=Wye model=2 kv=0.22 kw=0.2416225 pf=0.92 daily=RE7_DU status=variable vmaxpu=1.5 vminpu=0.92
New Load.BT_1626490_M2 bus1=UC1626490.1.4 phases=1 conn=Wye model=3 kv=0.22 kw=0.2416225 pf=0.92 daily=RE7_DU status=variable vmaxpu=1.5 vminpu=0.92
New Load.BT_1626672_M1 bus1=UC1626672.1.4 phases=1 conn=Wye model=2 kv=0.22 kw=0.2092295 pf=0.92 daily=RU1_DU status=variable vmaxpu=1.5 vminpu=0.92
New Load.BT_1626672_M2 bus1=UC1626672.1.4 phases=1 conn=Wye model=3 kv=0.22 kw=0.2092295 pf=0.92 daily=RU1_DU status=variable vmaxpu=1.5 vminpu=0.92
New Load.BT_1628760_M1 bus1=UC1628760.1.4 phases=1 conn=Wye model=2 kv=0.22 kw=0.293955 pf=0.92 daily=RU3_DU status=variable vmaxpu=1.5 vminpu=0.92
New Load.BT_1628760_M2 bus1=UC1628760.1.4 phases=1 conn=Wye model=3 kv=0.22 kw=0.293955 pf=0.92 daily=RU3_DU status=variable vmaxpu=1.5 vminpu=0.92
New Load.BT_1628763_M1 bus1=UC1628763.1.4 phases=1 conn=Wye model=2 kv=0.22 kw=0 pf=0.92 daily=RU5_DU status=variable vmaxpu=1.5 vminpu=0.92
New Load.BT_1628763_M2 bus1=UC1628763.1.4 phases=1 conn=Wye model=3 kv=0.22 kw=0 pf=0.92 daily=RU5_DU status=variable vmaxpu=1.5 vminpu=0.92
New Load.BT_1624026_M1 bus1=UC1624026.1.4 phases=1 conn=Wye model=2 kv=0.22 kw=0.3838495 pf=0.92 daily=RU1_DU status=variable vmaxpu=1.5 vminpu=0.92
New Load.BT_1624026_M2 bus1=UC1624026.1.4 phases=1 conn=Wye model=3 kv=0.22 kw=0.3838495 pf=0.92 daily=RU1_DU status=variable vmaxpu=1.5 vminpu=0.92
New Load.BT_1607258_M1 bus1=UC1607258.1.2.4 phases=1 conn=Delta model=2 kv=0.44 kw=1.025594 pf=0.92 daily=RU2_DU status=variable vmaxpu=1.5 vminpu=0.92
New Load.BT_1607258_M2 bus1=UC1607258.1.2.4 phases=1 conn=Delta model=3 kv=0.44 kw=1.025594 pf=0.92 daily=RU2_DU status=variable vmaxpu=1.5 vminpu=0.92
New Load.BT_1607252_M1 bus1=UC1607252.1.2.4 phases=1 conn=Delta model=2 kv=0.44 kw=1.334035 pf=0.92 daily=RU1_DU status=variable vmaxpu=1.5 vminpu=0.92
New Load.BT_1607252_M2 bus1=UC1607252.1.2.4 phases=1 conn=Delta model=3 kv=0.44 kw=1.334035 pf=0.92 daily=RU1_DU status=variable vmaxpu=1.5 vminpu=0.92
New Load.BT_1229546_M1 bus1=UC1229546.1.4 phases=1 conn=Wye model=2 kv=0.22 kw=0.591055 pf=0.92 daily=RU4_DU status=variable vmaxpu=1.5 vminpu=0.92
New Load.BT_1229546_M2 bus1=UC1229546.1.4 phases=1 conn=Wye model=3 kv=0.22 kw=0.591055 pf=0.92 daily=RU4_DU status=variable vmaxpu=1.5 vminpu=0.92
New Load.BT_1606000_M1 bus1=UC1606000.2.4 phases=1 conn=Wye model=2 kv=0.219393102 kw=0.6963665 pf=0.92 daily=RU2_DU status=variable vmaxpu=1.5 vminpu=0.92
New Load.BT_1606000_M2 bus1=UC1606000.2.4 phases=1 conn=Wye model=3 kv=0.219393102 kw=0.6963665 pf=0.92 daily=RU2_DU status=variable vmaxpu=1.5 vminpu=0.92
New Load.BT_1607288_M1 bus1=UC1607288.1.2.4 phases=1 conn=Delta model=2 kv=0.38 kw=0.295307 pf=0.92 daily=RU2_DU status=variable vmaxpu=1.5 vminpu=0.92
New Load.BT_1607288_M2 bus1=UC1607288.1.2.4 phases=1 conn=Delta model=3 kv=0.38 kw=0.295307 pf=0.92 daily=RU2_DU status=variable vmaxpu=1.5 vminpu=0.92
New Load.BT_1629422_M1 bus1=UC1629422.1.2.3.4 phases=3 conn=Delta model=2 kv=0.38 kw=0.1458975 pf=0.92 daily=RU7_DU status=variable vmaxpu=1.5 vminpu=0.92
New Load.BT_1629422_M2 bus1=UC1629422.1.2.3.4 phases=3 conn=Delta model=3 kv=0.38 kw=0.1458975 pf=0.92 daily=RU7_DU status=variable vmaxpu=1.5 vminpu=0.92
New Load.BT_1629639_M1 bus1=UC1629639.1.4 phases=1 conn=Wye model=2 kv=0.22 kw=0.1494845 pf=0.92 daily=RU4_DU status=variable vmaxpu=1.5 vminpu=0.92
New Load.BT_1629639_M2 bus1=UC1629639.1.4 phases=1 conn=Wye model=3 kv=0.22 kw=0.1494845 pf=0.92 daily=RU4_DU status=variable vmaxpu=1.5 vminpu=0.92
New Load.BT_1632306_M1 bus1=UC1632306.1.4 phases=1 conn=Wye model=2 kv=0.22 kw=0.05506 pf=0.92 daily=RU1_DU status=variable vmaxpu=1.5 vminpu=0.92
New Load.BT_1632306_M2 bus1=UC1632306.1.4 phases=1 conn=Wye model=3 kv=0.22 kw=0.05506 pf=0.92 daily=RU1_DU status=variable vmaxpu=1.5 vminpu=0.92
New Load.BT_1607316_M1 bus1=UC1607316.2.4 phases=1 conn=Wye model=2 kv=0.22 kw=0.295217 pf=0.92 daily=RE2_DU status=variable vmaxpu=1.5 vminpu=0.92
New Load.BT_1607316_M2 bus1=UC1607316.2.4 phases=1 conn=Wye model=3 kv=0.22 kw=0.295217 pf=0.92 daily=RE2_DU status=variable vmaxpu=1.5 vminpu=0.92
New Load.BT_1607319_M1 bus1=UC1607319.1.4 phases=1 conn=Wye model=2 kv=0.22 kw=0.219011 pf=0.92 daily=PP5_DU status=variable vmaxpu=1.5 vminpu=0.92
New Load.BT_1607319_M2 bus1=UC1607319.1.4 phases=1 conn=Wye model=3 kv=0.22 kw=0.219011 pf=0.92 daily=PP5_DU status=variable vmaxpu=1.5 vminpu=0.92
New Load.BT_1607322_M1 bus1=UC1607322.1.4 phases=1 conn=Wye model=2 kv=0.22 kw=0 pf=0.92 daily=RU7_DU status=variable vmaxpu=1.5 vminpu=0.92
New Load.BT_1607322_M2 bus1=UC1607322.1.4 phases=1 conn=Wye model=3 kv=0.22 kw=0 pf=0.92 daily=RU7_DU status=variable vmaxpu=1.5 vminpu=0.92
New Load.BT_1607326_M1 bus1=UC1607326.2.4 phases=1 conn=Wye model=2 kv=0.22 kw=0.148762 pf=0.92 daily=RU8_DU status=variable vmaxpu=1.5 vminpu=0.92
New Load.BT_1607326_M2 bus1=UC1607326.2.4 phases=1 conn=Wye model=3 kv=0.22 kw=0.148762 pf=0.92 daily=RU8_DU status=variable vmaxpu=1.5 vminpu=0.92
New Load.BT_1607328_M1 bus1=UC1607328.2.4 phases=1 conn=Wye model=2 kv=0.22 kw=0.2047185 pf=0.92 daily=RU3_DU status=variable vmaxpu=1.5 vminpu=0.92
New Load.BT_1607328_M2 bus1=UC1607328.2.4 phases=1 conn=Wye model=3 kv=0.22 kw=0.2047185 pf=0.92 daily=RU3_DU status=variable vmaxpu=1.5 vminpu=0.92
New Load.BT_1626487_M1 bus1=UC1626487.1.4 phases=1 conn=Wye model=2 kv=0.22 kw=0.013768 pf=0.92 daily=RU4_DU status=variable vmaxpu=1.5 vminpu=0.92
New Load.BT_1626487_M2 bus1=UC1626487.1.4 phases=1 conn=Wye model=3 kv=0.22 kw=0.013768 pf=0.92 daily=RU4_DU status=variable vmaxpu=1.5 vminpu=0.92
New Load.BT_1627321_M1 bus1=UC1627321.1.4 phases=1 conn=Wye model=2 kv=0.11 kw=0.425235 pf=0.92 daily=RU8_DU status=variable vmaxpu=1.5 vminpu=0.92
New Load.BT_1627321_M2 bus1=UC1627321.1.4 phases=1 conn=Wye model=3 kv=0.11 kw=0.425235 pf=0.92 daily=RU8_DU status=variable vmaxpu=1.5 vminpu=0.92
New Load.BT_1627342_M1 bus1=UC1627342.1.4 phases=1 conn=Wye model=2 kv=0.11 kw=0.081398 pf=0.92 daily=RU8_DU status=variable vmaxpu=1.5 vminpu=0.92
New Load.BT_1627342_M2 bus1=UC1627342.1.4 phases=1 conn=Wye model=3 kv=0.11 kw=0.081398 pf=0.92 daily=RU8_DU status=variable vmaxpu=1.5 vminpu=0.92
New Load.BT_1638606_M1 bus1=UC1638606.2.4 phases=1 conn=Wye model=2 kv=0.11 kw=0 pf=0.92 daily=RU3_DU status=variable vmaxpu=1.5 vminpu=0.92
New Load.BT_1638606_M2 bus1=UC1638606.2.4 phases=1 conn=Wye model=3 kv=0.11 kw=0 pf=0.92 daily=RU3_DU status=variable vmaxpu=1.5 vminpu=0.92
New Load.BT_1633892_M1 bus1=UC1633892.1.4 phases=1 conn=Wye model=2 kv=0.11 kw=0.3774055 pf=0.92 daily=RU7_DU status=variable vmaxpu=1.5 vminpu=0.92
New Load.BT_1633892_M2 bus1=UC1633892.1.4 phases=1 conn=Wye model=3 kv=0.11 kw=0.3774055 pf=0.92 daily=RU7_DU status=variable vmaxpu=1.5 vminpu=0.92
New Load.BT_1607257_M1 bus1=UC1607257.1.4 phases=1 conn=Wye model=2 kv=0.22 kw=0.4291245 pf=0.92 daily=RU5_DU status=variable vmaxpu=1.5 vminpu=0.92
New Load.BT_1607257_M2 bus1=UC1607257.1.4 phases=1 conn=Wye model=3 kv=0.22 kw=0.4291245 pf=0.92 daily=RU5_DU status=variable vmaxpu=1.5 vminpu=0.92
New Load.BT_1607255_M1 bus1=UC1607255.2.4 phases=1 conn=Wye model=2 kv=0.219393102 kw=0.5009745 pf=0.92 daily=RU6_DU status=variable vmaxpu=1.5 vminpu=0.92
New Load.BT_1607255_M2 bus1=UC1607255.2.4 phases=1 conn=Wye model=3 kv=0.219393102 kw=0.5009745 pf=0.92 daily=RU6_DU status=variable vmaxpu=1.5 vminpu=0.92
New Load.BT_1607260_M1 bus1=UC1607260.1.4 phases=1 conn=Wye model=2 kv=0.22 kw=0 pf=0.92 daily=RU8_DU status=variable vmaxpu=1.5 vminpu=0.92
New Load.BT_1607260_M2 bus1=UC1607260.1.4 phases=1 conn=Wye model=3 kv=0.22 kw=0 pf=0.92 daily=RU8_DU status=variable vmaxpu=1.5 vminpu=0.92
New Load.BT_1626486_M1 bus1=UC1626486.1.4 phases=1 conn=Wye model=2 kv=0.22 kw=0.5984085 pf=0.92 daily=RU3_DU status=variable vmaxpu=1.5 vminpu=0.92
New Load.BT_1626486_M2 bus1=UC1626486.1.4 phases=1 conn=Wye model=3 kv=0.22 kw=0.5984085 pf=0.92 daily=RU3_DU status=variable vmaxpu=1.5 vminpu=0.92
New Load.BT_1635694_M1 bus1=UC1635694.1.4 phases=1 conn=Wye model=2 kv=0.22 kw=0.081398 pf=0.92 daily=RU8_DU status=variable vmaxpu=1.5 vminpu=0.92
New Load.BT_1635694_M2 bus1=UC1635694.1.4 phases=1 conn=Wye model=3 kv=0.22 kw=0.081398 pf=0.92 daily=RU8_DU status=variable vmaxpu=1.5 vminpu=0.92
New Load.BT_1607289_M1 bus1=UC1607289.1.2.4 phases=1 conn=Delta model=2 kv=0.44 kw=0.5679085 pf=0.92 daily=RU1_DU status=variable vmaxpu=1.5 vminpu=0.92
New Load.BT_1607289_M2 bus1=UC1607289.1.2.4 phases=1 conn=Delta model=3 kv=0.44 kw=0.5679085 pf=0.92 daily=RU1_DU status=variable vmaxpu=1.5 vminpu=0.92
New Load.BT_1607290_M1 bus1=UC1607290.1.4 phases=1 conn=Wye model=2 kv=0.22 kw=0 pf=0.92 daily=RU8_DU status=variable vmaxpu=1.5 vminpu=0.92
New Load.BT_1607290_M2 bus1=UC1607290.1.4 phases=1 conn=Wye model=3 kv=0.22 kw=0 pf=0.92 daily=RU8_DU status=variable vmaxpu=1.5 vminpu=0.92
New Load.BT_1636598_M1 bus1=UC1636598.1.4 phases=1 conn=Wye model=2 kv=0.22 kw=0.2694555 pf=0.92 daily=RU8_DU status=variable vmaxpu=1.5 vminpu=0.92
New Load.BT_1636598_M2 bus1=UC1636598.1.4 phases=1 conn=Wye model=3 kv=0.22 kw=0.2694555 pf=0.92 daily=RU8_DU status=variable vmaxpu=1.5 vminpu=0.92
New Load.BT_1637704_M1 bus1=UC1637704.2.4 phases=1 conn=Wye model=2 kv=0.22 kw=0 pf=0.92 daily=RU8_DU status=variable vmaxpu=1.5 vminpu=0.92
New Load.BT_1637704_M2 bus1=UC1637704.2.4 phases=1 conn=Wye model=3 kv=0.22 kw=0 pf=0.92 daily=RU8_DU status=variable vmaxpu=1.5 vminpu=0.92
New Load.BT_1607353_M1 bus1=UC1607353.1.4 phases=1 conn=Wye model=2 kv=0.22 kw=0.34034 pf=0.92 daily=RU5_DU status=variable vmaxpu=1.5 vminpu=0.92
New Load.BT_1607353_M2 bus1=UC1607353.1.4 phases=1 conn=Wye model=3 kv=0.22 kw=0.34034 pf=0.92 daily=RU5_DU status=variable vmaxpu=1.5 vminpu=0.92
New Load.BT_1607349_M1 bus1=UC1607349.1.4 phases=1 conn=Wye model=2 kv=0.22 kw=0.0073985 pf=0.92 daily=RU5_DU status=variable vmaxpu=1.5 vminpu=0.92
New Load.BT_1607349_M2 bus1=UC1607349.1.4 phases=1 conn=Wye model=3 kv=0.22 kw=0.0073985 pf=0.92 daily=RU5_DU status=variable vmaxpu=1.5 vminpu=0.92
New Load.BT_1607350_M1 bus1=UC1607350.2.4 phases=1 conn=Wye model=2 kv=0.22 kw=0.6591515 pf=0.92 daily=RU1_DU status=variable vmaxpu=1.5 vminpu=0.92
New Load.BT_1607350_M2 bus1=UC1607350.2.4 phases=1 conn=Wye model=3 kv=0.22 kw=0.6591515 pf=0.92 daily=RU1_DU status=variable vmaxpu=1.5 vminpu=0.92
New Load.BT_1623434_M1 bus1=UC1623434.2.4 phases=1 conn=Wye model=2 kv=0.22 kw=0.9378 pf=0.92 daily=RU2_DU status=variable vmaxpu=1.5 vminpu=0.92
New Load.BT_1623434_M2 bus1=UC1623434.2.4 phases=1 conn=Wye model=3 kv=0.22 kw=0.9378 pf=0.92 daily=RU2_DU status=variable vmaxpu=1.5 vminpu=0.92
New Load.BT_1607355_M1 bus1=UC1607355.2.4 phases=1 conn=Wye model=2 kv=0.219393102 kw=0.4453065 pf=0.92 daily=RU3_DU status=variable vmaxpu=1.5 vminpu=0.92
New Load.BT_1607355_M2 bus1=UC1607355.2.4 phases=1 conn=Wye model=3 kv=0.219393102 kw=0.4453065 pf=0.92 daily=RU3_DU status=variable vmaxpu=1.5 vminpu=0.92
New Load.BT_1607304_M1 bus1=UC1607304.1.2.3.4 phases=3 conn=Delta model=2 kv=0.38 kw=0.54139 pf=0.92 daily=RU7_DU status=variable vmaxpu=1.5 vminpu=0.92
New Load.BT_1607304_M2 bus1=UC1607304.1.2.3.4 phases=3 conn=Delta model=3 kv=0.38 kw=0.54139 pf=0.92 daily=RU7_DU status=variable vmaxpu=1.5 vminpu=0.92
New Load.BT_1607305_M1 bus1=UC1607305.1.4 phases=1 conn=Wye model=2 kv=0.219393102 kw=0.5347455 pf=0.92 daily=RU2_DU status=variable vmaxpu=1.5 vminpu=0.92
New Load.BT_1607305_M2 bus1=UC1607305.1.4 phases=1 conn=Wye model=3 kv=0.219393102 kw=0.5347455 pf=0.92 daily=RU2_DU status=variable vmaxpu=1.5 vminpu=0.92
New Load.BT_1607273_M1 bus1=UC1607273.1.2.4 phases=1 conn=Delta model=2 kv=0.44 kw=0.2697555 pf=0.92 daily=RU6_DU status=variable vmaxpu=1.5 vminpu=0.92
New Load.BT_1607273_M2 bus1=UC1607273.1.2.4 phases=1 conn=Delta model=3 kv=0.44 kw=0.2697555 pf=0.92 daily=RU6_DU status=variable vmaxpu=1.5 vminpu=0.92
...
